[General]
seed-set = ${0}
#ned-path = /mnt/c/Users/amedr/inet/src/inet
#result-dir = /mnt/c/Users/amedr/slaw/simulations/results
ned-path = /mnt/c/Users/Geo/inet/src/inet
result-dir = /mnt/c/Users/Geo/gsim/slaw/simulations/results
sim-time-limit = 1000d
simtime-resolution = 1s
*.numHosts = 100
**.constraintAreaMinX = 0m
**.constraintAreaMinY = 0m
**.constraintAreaMinZ = 0m
**.constraintAreaMaxX = 2000m
**.constraintAreaMaxY = 2000m
**.constraintAreaMaxZ = 0m
**.updateInterval = 1s # test with 0s too, and let getCurrentPosition update the display string from a test module
**.debug = true

**.mobility.initFromDisplayString = false
**.coordX:vector.vector-recording = false
**.coordY:vector.vector-recording = false
**.intraFlightLength:vector.vector-recording = false
**.interFlightLength:vector.vector-recording = false
**.flight:vector.vector-recording = false
**.trip_counter:vector.vector-recording = false
**.intraFlightLength:histogram.scalar-recording = false
**.interFlightLength:histogram.scalar-recording = false
**.flight:histogram.scalar-recording = false
**.trip_counter:histogram.scalar-recording = false

# Following the original MATLAB trace generator "SlawMatlab"
# or following the paper recommendations "SlawTransNetw"
**.slawModelType = "SlawMatlab"
**.slaw.mapName = "./maps/2000_1000x1000/2000_1000x1000_0.75_7"
**.slaw.clusterList = ""
**.slaw.planningDegree = 3.0
**.slaw.clusteringRadius = 50m
#CONSTANT = 1, UNIFORM = 2, NORMAL = 3, PARETO_BOUNDED = 4
**.slaw.pauseTimeModelType = 4
**.slaw.pausetimeA = 1.36 
**.slaw.pausetimeB = 30s
**.slaw.pausetimeH = 9054s
**.slaw.pauseModelType = 3
#(1) constant --> 1.36 m/s
#(2) uniform --> (speedA, speedB)
#(3) normal --> pedestrain speed model by Satish Chandra
#(4) levy-walk --> pedestrain speed model by Injong Rhee
**.slaw.speedModelType = 3
**.speedA = 1.36mps
**.speedB = 0.19mps
**.slaw.clusterRatio = 5.0
**.slaw.waypointRatio = 5.0

[Config TripRecorder]
network = SLAWTripRecorder
seed-set = 9
output-vector-file = ${resultdir}/${configname}-${h}.vec
output-scalar-file = ${resultdir}/${configname}-${h}.sca
#**.slawModelType = "SlawTransNetw"
**.slaw.clusterRatio = 10.0
**.slaw.waypointRatio = 10.0
**.slaw.clusteringRadius = 30m
**.hurstParameter = ${h=0.70}
**.slaw.mapName = "./maps/validation/SLAW_0.70.map"
**.output_file = "./results/TripRecorder.trip"

[Config ConnectivityTest]
network = SLAWConnectivityExperiment
output-vector-file = ${resultdir}/${configname}-${h}.vec
warmup-period = 10h
**.interContactTime:vector.vector-recording = true
**.width = 2000m
**.height = 2000m
**.coverageRadius = 50m
**.ictSamples = 100000
**.lltSamples = 100000
**.minInterContactTime = 600s
**.minLifetime = 600s
**.hurstParameter = ${h=0.75}
**.slaw.mapName = "./maps/validation/SLAW_0.75.map"
**.slaw.clusterList = "./ck_files/SLAW_0.75.ckf"

#Simulation could not work with pause time equals zero D:
[Config FlightValidation]
network = SLAWFlightLengthExperiment
seed-set = ${2}
warmup-period = 10h
output-vector-file = ${resultdir}/${configname}-h-${h}-a-${a}.vec
output-scalar-file = ${resultdir}/${configname}-h-${h}-a-${a}.sca
*.numHosts = 100
**.flight:vector.vector-recording = true
**.slaw.pauseTimeModelType = 1
**.slaw.pausetimeA = 0.5
**.slaw.planningDegree = ${a=3.0}
**.constraintAreaMaxX = 2000m
**.constraintAreaMaxY = 2000m
**.slaw.clusteringRadius = 50m
**.numSamples = 100000
**.classifyFlight = false
**.hurstParameter = ${h=0.70}
**.slaw.mapName = "./maps/validation/SLAW_0.70.map"
**.slaw.clusterList = "./ck_files/SLAW_0.70.ckf"

[Config FlightKaist]
network = SLAWFlightLengthExperiment
**.mobility = "SlawMobility"
**.slaw.planningDegree = ${0.5}
**.constraintAreaMinX = -6000m
**.constraintAreaMaxX = 7000m
**.constraintAreaMinY = -6000m
**.constraintAreaMaxY = 10000m
**.slaw.clusteringRadius = 50m
**.numSamples = 100000
**.slaw.mapName = "./maps/PauseTimeMap/kaist"

[Config FlightNCSU]
network = SLAWFlightLengthExperiment
**.mobility = "SlawMobility"
**.slaw.planningDegree = ${0.5}
**.constraintAreaMinX = -14000m
**.constraintAreaMaxX = 2000m
**.constraintAreaMinY = -8000m
**.constraintAreaMaxY = 4000m
**.slaw.clusteringRadius = 50m
**.numSamples = 100000
**.slaw.mapName = "./maps/PauseTimeMap/ncsu"

[Config FlightNewYork]
network = SLAWFlightLengthExperiment
**.mobility = "SlawMobility"
**.slaw.planningDegree = ${0.0, 0.5, 1.0, 1.5, 2.0, 2.5}
**.constraintAreaMinX = -20000m
**.constraintAreaMaxX = 20000m
**.constraintAreaMinY = -5000m
**.constraintAreaMaxY = 20000m
**.slaw.clusteringRadius = 50m
**.numSamples = 100000
**.slaw.mapName = "./maps/PauseTimeMap/new_york"

[Config FlightOrlando]
network = SLAWFlightLengthExperiment
**.mobility = "SlawMobility"
**.slaw.planningDegree = ${0.5}
**.constraintAreaMinX = -2000m
**.constraintAreaMaxX = 14000m
**.constraintAreaMinY = -12500m
**.constraintAreaMaxY = 7500m
**.slaw.clusteringRadius = 50m
**.numSamples = 150000
**.slaw.mapName = "./maps/PauseTimeMap/orlando"

[Config FlightStateFair]
network = SLAWFlightLengthExperiment
**.mobility = "SlawMobility"
**.slaw.planningDegree = ${0.5}
**.constraintAreaMinX = -400m
**.constraintAreaMaxX = 1000m
**.constraintAreaMinY = -600m
**.constraintAreaMaxY = 600m
**.slaw.clusteringRadius = 50m
**.numSamples = 100000
**.slaw.mapName = "./maps/PauseTimeMap/state_fair"

[Config PlanningDegree]
network = SLAWFlightLengthExperiment
**.mobility = "SlawMobility"
**.slaw.planningDegree = ${1.5}
**.constraintAreaMinX = -6000m
**.constraintAreaMaxX = 7000m
**.constraintAreaMinY = -6000m
**.constraintAreaMaxY = 10000m
**.slaw.clusteringRadius = 50m
**.numSamples = 1000
**.slaw.mapName = "./maps/PauseTimeMap/kaist"

[Config RWP]
network = SLAWFlightLengthExperiment
**.mobility = "RandomWPMobility"
**.numSamples = 100
**.walker.speed = uniform(2mps, 4mps)

[Config SlawMatlab]
network = SLAWFlightLengthExperiment
output-vector-file = ${resultdir}/${configname}-0.75.vec
output-scalar-file = ${resultdir}/${configname}-0.75.sca
*.numHosts = 100
**.mobility = "SlawBonnMotion"
**.mapname = "./slaw_traces/SLAW_0.75"
**.constraintAreaMaxX = 2000m
**.constraintAreaMaxY = 2000m
**.numSamples = 200000
#**.traceFile = "/mnt/c/Users/Geo/gsim/slaw/simulations/slaw_traces/Bonnmotion_SLAW_0.9_72_100.mob"
**.traceFile = "./slaw_traces/Bonnmotion_SLAW_0.75_96_100.mob"
**nodeId = -1

[Config SlawMatlabTest]
network = SLAWFlightLengthExperiment
output-vector-file = ${resultdir}/${configname}-0.75.vec
output-scalar-file = ${resultdir}/${configname}-0.75.sca
*.numHosts = 1
**.mobility = "SlawBonnMotion"
**.mapname = "./slaw_traces/SLAW_0.75"
**.constraintAreaMaxX = 2000m
**.constraintAreaMaxY = 2000m
**.numSamples = 200000
#**.traceFile = "/mnt/c/Users/Geo/gsim/slaw/simulations/slaw_traces/Bonnmotion_SLAW_0.9_72_100.mob"
**.traceFile = "./slaw_traces/walker4.temp.txt"
**nodeId = -1
